Haas100_DataUpLink
*SPICE Netlist generated by Advanced Sim server on 7/13/2021 5:06:25 PM
.options MixedSimGenerated

*Schematic Netlist:


*Selected Circuit Analyses:
.TRAN 0.1u 5u 0 0.1u

.END
